%mem=16MW
#MP2/aug-cc-pVDZ scan

CL1...OHH  90.0 degrees, mp2/aug-cc-pVDZ

0 1
C1        0.000000    0.338016    0.437380
CL11      1.473127   -0.559367   -0.071261
CL12     -1.473129   -0.559363   -0.071261
H13       0.000002    0.326972    1.533563
C2        0.000004    1.737706   -0.146189
H21      -0.898183    2.275207    0.193075
H22       0.898132    2.275242    0.193175
H23       0.000066    1.686646   -1.244096
x      CL11    1.   C1  90.  C2   0.0
o1w    CL11  roh     x  90.  C1 180.0
h1w   o1w  0.9572 CL11 127.74 x  90.0
h2w   o1w  0.9572 CL11 127.74 x -90.0

roh 1.5 45 0.1



