%CHK=chlb_c4c5c6cl
%MEM=6600MB
%NPROCSHARED=8
# MP2/aug-cc-pVDZ opt=modredundant nosymm geom=connectivity

CHLB OPTIMIZED AT MP2/aug-cc-pVDZ

0 1
 C                 -0.01638700   -0.03576100    0.00000000
 H                 -0.57642300   -0.97407700    0.00000000
 C                  1.39066400   -0.02641900    0.00000000
 H                  1.93306100   -0.97645700    0.00000000
 C                  2.09724100    1.19078700    0.00000000
 H                  3.19067400    1.19078900    0.00000000
 C                  1.39065800    2.40798900    0.00000000
 H                  1.93305100    3.35803000    0.00000000
 C                 -0.01639200    2.41732500    0.00000000
 H                 -0.57643400    3.35563800    0.00000000
 C                 -0.70196600    1.19078000    0.00000000
 Cl                -2.45606700    1.19077600    0.00000000

 1 2 1.0 3 1.5 11 1.5
 2
 3 4 1.0 5 1.5
 4
 5 6 1.0 7 1.5
 6
 7 8 1.0 9 1.5
 8
 9 10 1.0 11 1.5
 10
 11 12 1.0
 12

D 10 9 11 12 60. S 8 -15.
