%CHK=CHLB_OPT_FREQ_MP2
%MEM=1200MB
%NPROCSHARED=2
#MP2/AUG-CC-PVDZ OPT=(TIGHT,MAXCYCLE=200) POP=(MK,DIPOLE) DENSITY=CURRENT

CHLB OPTIMIZED AT MP2/AUG-CC-PVDZ*

0 1
 C    -0.01459    -0.03886    -0.00000
 H    -0.55742    -0.97057    -0.00000
 C     1.39994    -0.03513     0.00000
 H     1.94027    -0.96895     0.00000
 C     2.10419     1.19158     0.00000
 H     3.18344     1.19426     0.00000
 C     1.39387     2.41478     0.00000
 H     1.92956     3.35127     0.00000
 C    -0.02066     2.41149    -0.00000
 H    -0.56812     3.34050    -0.00000
 C    -0.72153     1.18457    -0.00000
 Cl   -2.47101     1.18023    -0.00000



--LINK1--
%CHK=CHLB_OPT_FREQ_MP2
%MEM=1200MB
%NPROCSHARED=2
#MP2/AUG-CC-PVDZ NOSYMM SCF=TIGHT GEOM=ALLCHECK FREQ IOP(7/33=1)

CHLB FREQUENCY

0 1




