%mem=16MW
#MP2/aug-cc-pVDZ Opt=Z-matrix

C1H...OHH  90.0 degrees, mp2/aug-cc-pVDZ

0 1
C1        0.000000    0.822370    0.000000
CL11      0.825357   -0.789016    0.000000
H12       0.356564    1.347568    0.896000
H13       0.356564    1.347568   -0.896000
C2       -1.511627    0.654420    0.000000
H21      -1.990226    1.647724    0.000000
H22      -1.842105    0.104833   -0.893316
H23      -1.842105    0.104833    0.893316
x      H13    1.   C1  90.  C2   0.0
o1w    H13  roh     x  90.  C1 180.0
h1w   o1w  0.9572 H13 127.74 x  90.0
h2w   o1w  0.9572 H13 127.74 x -90.0

roh 2.1



