%MEM=1200MB
%NPROCSHARED=2
#MP2/CC-PVQZ polar density=current

T, MP2/ccPVQZ polarizability

0 1
 C                   -1.287362     -0.616242      0.000001
 H                   -1.330848     -1.265506     -0.881583
 H                   -1.330856     -1.265486      0.881600
 H                   -2.139694      0.064800     -0.000010
 C                    0.000000      0.176678      0.000000
 O                    0.000000      1.408403     -0.000004
 C                    1.287362     -0.616242      0.000002
 H                    1.330853     -1.265492      0.881596
 H                    1.330851     -1.265500     -0.881587
 H                    2.139694      0.064800     -0.000002



