%CHK=CHLB_OPT_FREQ_MP2
%mem=15GB
%nproc=12
#MP2/CC-PVQZ polar density=current

T, MP2/cc-pvdz polarizability

0 1
 C     0.173030   -1.226543    0.000000
 H    -0.387009   -2.164857    0.000000
 C     1.580080   -1.217204    0.000000
 H     2.122475   -2.167243    0.000000
 C     2.286660    0.000000    0.000000
 H     3.380093    0.000000    0.000000
 C     1.580080    1.217204    0.000000
 H     2.122476    2.167243    0.000000
 C     0.173029    1.226543    0.000000
 H    -0.387010    2.164857    0.000000
 C    -0.512547    0.000000    0.000000
 Cl   -2.266648    0.000000    0.000000



